01_conforme
  --CCDC--030920    3D                              

 26 25  0  0  0  0  0  0  0  0999 V2000
   -1.9554    6.4988    2.3356 C      0
   -2.1271    4.0836    2.2668 C      0
   -0.6775    5.2339    0.6931 C      0
   -0.0340    5.0842    3.0698 C      0
    0.8352    3.8526    2.9473 C      0
    1.5242    3.3144    5.1534 C      0
    0.2140    2.6043    5.0890 C      0
   -1.1873    5.2358    2.0998 N      3
    1.8611    3.8442    3.9743 O      0
    2.2227    3.4029    6.1245 O      0
   -2.2923    6.5593    3.3683 H      0
   -1.3458    7.3739    2.1231 H      0
   -2.8315    6.5389    1.6917 H      0
   -2.9734    4.1748    1.5892 H      0
   -1.6242    3.1420    2.0562 H      0
   -2.5104    4.0428    3.2842 H      0
    1.2960    3.8187    1.9524 H      0
    0.2127    2.9555    3.0529 H      0
    0.0561    6.0242    0.5478 H      0
   -0.2036    4.2838    0.4559 H      0
   -1.4907    5.3925   -0.0120 H      0
    0.6072    5.9707    2.9892 H      0
   -0.4618    5.0794    4.0800 H      0
    0.2684    1.7555    4.4104 H      0
   -0.0734    2.2351    6.0712 H      0
   -0.5692    3.2714    4.7352 H      0
  4  5  1
  6  7  1
  8  1  1
  9  5  1
 10  6  2
  2  8  1
  3  8  1
  4  8  1
  6  9  1
  1 11  1
  1 12  1
  1 13  1
  2 14  1
  2 15  1
  2 16  1
  5 17  1
  5 18  1
  3 19  1
  3 20  1
  3 21  1
  4 22  1
  4 23  1
  7 24  1
  7 25  1
  7 26  1
M  CHG  1   8   1
M  END
$$$$
02_conforme
  --CCDC--030920    3D                              

 30 30  0  0  0  0  0  0  0  0999 V2000
    0.8048    0.9360    5.2211 C      0
    0.3460    2.3659    5.0371 C      0
    1.4105    3.3954    5.3470 C      0
    1.2919    4.4608    4.2781 C      0
   -0.0061    4.0651    3.5753 C      0
   -0.1235    4.4694    2.1218 C      0
   -1.3418    5.2585    1.6834 N      3
   -2.5893    4.4752    1.9458 C      0
   -1.4382    6.5760    2.3872 C      0
   -1.2534    5.5296    0.2146 C      0
   -0.0381    2.6428    3.6686 O      0
    2.2061    3.3705    6.2608 O      0
    1.0739    0.7478    6.2584 H      0
    0.0165    0.2393    4.9437 H      0
    1.6748    0.7273    4.6020 H      0
   -0.5117    2.5440    5.6839 H      0
   -0.8494    4.4766    4.1281 H      0
    2.1378    4.4296    3.5930 H      0
    1.2167    5.4546    4.7171 H      0
   -0.5171    7.1437    2.2724 H      0
   -2.2529    7.1688    1.9765 H      0
   -1.6275    6.4434    3.4490 H      0
   -0.1134    3.5447    1.5317 H      0
    0.7721    5.0415    1.8500 H      0
   -2.6995    4.2700    3.0086 H      0
   -3.4672    5.0256    1.6140 H      0
   -2.5659    3.5243    1.4176 H      0
   -1.2051    4.5991   -0.3472 H      0
   -2.1225    6.0875   -0.1276 H      0
   -0.3640    6.1120   -0.0172 H      0
  1  2  1
  2  3  1
  3  4  1
  4  5  1
  5  6  1
  6  7  1
  7  8  1
  9  7  1
 10  7  1
 11  2  1
 12  3  2
  5 11  1
  1 13  1
  1 14  1
  1 15  1
  2 16  1
  5 17  1
  4 18  1
  4 19  1
  9 20  1
  9 21  1
  9 22  1
  6 23  1
  6 24  1
  8 25  1
  8 26  1
  8 27  1
 10 28  1
 10 29  1
 10 30  1
M  CHG  1   7   1
M  END
$$$$
03_conforme
  --CCDC--030920    3D                              

 32 32  0  0  0  0  0  0  0  0999 V2000
    0.8202    2.1348    4.6238 C      0
   -0.1336    2.5067    3.6608 O      0
    0.0735    3.8836    3.2424 C      0
    0.8294    4.5120    4.4002 C      0
    1.7247    3.3706    4.8566 C      0
   -1.2665    4.4965    2.8973 C      0
    0.0860    1.6889    5.8666 C      0
   -1.3040    5.7326    2.0197 N      3
   -0.5396    6.8468    2.6623 C      0
   -2.7014    6.1993    1.7581 C      0
   -0.6668    5.4214    0.7022 C      0
    2.1687    3.4939    6.2087 O      0
    1.4211    1.3111    4.2413 H      0
    0.7074    3.8941    2.3570 H      0
   -1.7906    4.7215    3.8344 H      0
   -1.8459    3.7242    2.3764 H      0
    0.1504    4.8225    5.1930 H      0
    1.4173    5.3672    4.0701 H      0
    2.5908    3.3097    4.1992 H      0
   -3.2257    6.4003    2.6884 H      0
   -2.6927    7.1202    1.1788 H      0
   -3.2622    5.4534    1.1988 H      0
   -0.5598    0.8406    5.6497 H      0
    0.7875    1.3910    6.6430 H      0
   -0.5321    2.4938    6.2591 H      0
    0.4969    6.5594    2.8258 H      0
   -0.5501    7.7346    2.0334 H      0
   -0.9747    7.1081    3.6248 H      0
   -0.6753    6.2950    0.0537 H      0
    0.3668    5.1099    0.8376 H      0
   -1.1992    4.6187    0.1963 H      0
    2.7192    4.3103    6.3007 H      0
  3  6  1
  1  7  1
  2  3  1
  6  8  1
  3  4  1
  8  9  1
  4  5  1
  8 10  1
  5  1  1
  8 11  1
  1  2  1
  5 12  1
  1 13  1
  3 14  1
  6 15  1
  6 16  1
  4 17  1
  4 18  1
  5 19  1
 10 20  1
 10 21  1
 10 22  1
  7 23  1
  7 24  1
  7 25  1
  9 26  1
  9 27  1
  9 28  1
 11 29  1
 11 30  1
 11 31  1
 12 32  1
M  CHG  1   8   1
M  END
$$$$
